/*---------------------------------------------------------------------------*\
  =========                 |
  \\      /  F ield         | OpenFOAM: The Open Source CFD Toolbox
   \\    /   O peration     | Website:  https://openfoam.org
    \\  /    A nd           | Version:  7
     \\/     M anipulation  |
\*---------------------------------------------------------------------------*/
Build  : 7-1ff648926f77
Exec   : decomposePar -case . -allRegions -force
Date   : Dec 11 2020
Time   : 17:40:06
Host   : "Mahravan"
PID    : 20894
I/O    : uncollated
Case   : /home/ehsan/OpenFOAM/ehsan-7/pcm/validation
nProcs : 1
sigFpe : Enabling floating point exception trapping (FOAM_SIGFPE).
fileModificationChecking : Monitoring run-time modified files using timeStampMaster (fileModificationSkew 10)
allowSystemOperations : Allowing user-supplied system call operations

// * * * * * * * * * * * * * * * * * * * * * * * * * * * * * * * * * * * * * //
Create time

Removing 3 existing processor directories


Decomposing mesh air

Create mesh

Calculating distribution of cells
 Foam::decompositionMethod::New 
{
    numberOfSubdomains 3 S;
    method          scotch;
}

Selecting decompositionMethod scotch

Finished decomposition in 0.01 s

Calculating original mesh data

Distributing cells to processors

Distributing faces to processors

Distributing points to processors

Constructing processor meshes

Processor 0
    Number of cells = 3200
    Number of faces shared with processor 2 = 80
    Number of processor patches = 1
    Number of processor faces = 80
    Number of boundary faces = 6560

Processor 1
    Number of cells = 3200
    Number of faces shared with processor 2 = 80
    Number of processor patches = 1
    Number of processor faces = 80
    Number of boundary faces = 6560

Processor 2
    Number of cells = 3200
    Number of faces shared with processor 0 = 80
    Number of faces shared with processor 1 = 80
    Number of processor patches = 2
    Number of processor faces = 160
    Number of boundary faces = 6480

Number of processor faces = 160
Max number of cells = 3200 (0% above average 3200)
Max number of processor patches = 2 (50% above average 1.3333333)
Max number of faces between processors = 160 (50% above average 106.66667)

Time = 0

Processor 0: field transfer
Processor 1: field transfer
Processor 2: field transfer


Decomposing mesh pcm

Create mesh

Calculating distribution of cells
 Foam::decompositionMethod::New 
{
    numberOfSubdomains 3 S;
    method          scotch;
}

Selecting decompositionMethod scotch

Finished decomposition in 0.01 s

Calculating original mesh data

Distributing cells to processors

Distributing faces to processors

Distributing points to processors

Constructing processor meshes

Processor 0
    Number of cells = 2000
    Number of faces shared with processor 2 = 50
    Number of processor patches = 1
    Number of processor faces = 50
    Number of boundary faces = 4130

Processor 1
    Number of cells = 2000
    Number of faces shared with processor 2 = 50
    Number of processor patches = 1
    Number of processor faces = 50
    Number of boundary faces = 4130

Processor 2
    Number of cells = 2000
    Number of faces shared with processor 0 = 50
    Number of faces shared with processor 1 = 50
    Number of processor patches = 2
    Number of processor faces = 100
    Number of boundary faces = 4080

Number of processor faces = 100
Max number of cells = 2000 (0% above average 2000)
Max number of processor patches = 2 (50% above average 1.3333333)
Max number of faces between processors = 100 (50% above average 66.666667)

Time = 0
Using dynamicCode for patch pcmRight on field T at line 28 in "/home/ehsan/OpenFOAM/ehsan-7/pcm/validation/0/pcm/T.boundaryField.pcmRight"

Processor 0: field transfer
Processor 1: field transfer
Processor 2: field transfer

End

