/*---------------------------------------------------------------------------*\
  =========                 |
  \\      /  F ield         | OpenFOAM: The Open Source CFD Toolbox
   \\    /   O peration     | Website:  https://openfoam.org
    \\  /    A nd           | Version:  7
     \\/     M anipulation  |
\*---------------------------------------------------------------------------*/
Build  : 7-1ff648926f77
Exec   : pcmFoam -parallel -case .
Date   : Dec 11 2020
Time   : 17:40:07
Host   : "Mahravan"
PID    : 20902
I/O    : uncollated
Case   : /home/ehsan/OpenFOAM/ehsan-7/pcm/validation
nProcs : 3
Slaves : 
2
(
"Mahravan.20903"
"Mahravan.20904"
)

Pstream initialized with:
    floatTransfer      : 0
    nProcsSimpleSum    : 0
    commsType          : nonBlocking
    polling iterations : 0
sigFpe : Enabling floating point exception trapping (FOAM_SIGFPE).
fileModificationChecking : Monitoring run-time modified files using timeStampMaster (fileModificationSkew 10)
allowSystemOperations : Allowing user-supplied system call operations

// * * * * * * * * * * * * * * * * * * * * * * * * * * * * * * * * * * * * * //
Create time

Create fluid mesh for region air for time = 0

Create pcm mesh for region pcm for time = 0

*** Reading fluid mesh thermophysical properties for region air

    Adding to thermoFluid

Selecting thermodynamics package 
{
    type            heRhoThermo;
    mixture         pureMixture;
    transport       const;
    thermo          hConst;
    equationOfState rhoConst;
    specie          specie;
    energy          sensibleEnthalpy;
}

    Adding to rhoFluid

    Adding to UFluid

    Adding to phiFluid

    Adding to gFluid

    Adding to hRefFluid

    Adding to ghFluid

    Adding to ghfFluid

    Adding to turbulenceFluid

Selecting turbulence model type laminar
Selecting laminar stress model Stokes
    Adding to reactionFluid

Combustion model not active: combustionProperties not found
Selecting combustion model none
    Adding to radiationFluid

Selecting radiationModel P1
Selecting absorptionEmissionModel constant
Selecting scatterModel none
Selecting sootModel none
    Adding to KFluid

    Adding to dpdtFluid

    Adding to fieldsFluid

    Adding MRF

No MRF models present

    Adding fvOptions

Reading transportProperties

Reading field p_rgh

Using dynamicCode for patch pcmRight on field T at line 26 in "/home/ehsan/OpenFOAM/ehsan-7/pcm/validation/processor0/0/pcm/T.boundaryField.pcmRight"
Reading field U

Reading/calculating face flux field phi

Calling for making immiscibleIncompressibleTwoPhaseMixture
Selecting incompressible transport model Newtonian
Selecting incompressible transport model Newtonian
yyyyyyyyyyyyyyyyyyyyyyyyyyyyyyyyyyyyyyyyyyyyyyyyyyyyyyyyyyyyyyyyy
1

===========================================================+
2
3
4
5
6
7
cp1_ dims[0 2 -2 -1 0 0 0]
cp2_ dims[0 2 -2 -1 0 0 0]
DL dims[0 2 -2 -1 0 0 0]
9
incompressibleTwoPhaseMixture done
kPCM name iskappa
Selecting turbulence model type laminar
Selecting laminar stress model Stokes

Reading hRef for PCM

Reading g for PCM
Calculating field g.h

No finite volume options present

PIMPLE: Region air
PIMPLE: No convergence criteria found


PIMPLE: Region pcm
PIMPLE: No convergence criteria found


PIMPLE: Operating solver in transient mode with 1 outer corrector
PIMPLE: Operating solver in PISO mode


Region: air Courant Number mean: 1.2468217e-17 max: 1.9984014e-16
Region: pcm Courant Number mean: 1.4319773e-20 max: 1.5944692e-19
Region: air Courant Number mean: 1.2468217e-17 max: 1.9984014e-16
Region: pcm Courant Number mean: 1.4319773e-20 max: 1.5944692e-19
Time = 0.75


Solving for fluid region air
diagonal:  Solving for rho, Initial residual = 0, Final residual = 0, No Iterations 0
DILUPBiCGStab:  Solving for Ux, Initial residual = 0.1801857, Final residual = 4.7092132e-09, No Iterations 3
DILUPBiCGStab:  Solving for Uy, Initial residual = 0.25292971, Final residual = 6.8422399e-08, No Iterations 3
DILUPBiCGStab:  Solving for h, Initial residual = 1, Final residual = 5.3505089e-08, No Iterations 7
GAMG:  Solving for G, Initial residual = 1, Final residual = 8.3809014e-08, No Iterations 16
Min/max T:293.13964 293.15
GAMG:  Solving for p_rgh, Initial residual = 0.96138171, Final residual = 6.4315357e-08, No Iterations 14
diagonal:  Solving for rho, Initial residual = 0, Final residual = 0, No Iterations 0
time step continuity errors : sum local = 4.8622205e-17, global = 4.3281639e-17, cumulative = 4.3281639e-17
Min/max rho:1.204 1.204

Solving for pcm region pcm
DILUPBiCGStab:  Solving for Ux, Initial residual = 0.99999987, Final residual = 0.024738344, No Iterations 1
DILUPBiCGStab:  Solving for Uy, Initial residual = 0.99999973, Final residual = 0.055462185, No Iterations 1
End of UEqn
111111111111
GAMG:  Solving for p_rgh, Initial residual = 1, Final residual = 4.8553192e-05, No Iterations 1
time step continuity errors : sum local = 1.5744892e-07, global = -1.27053e-19, cumulative = -1.27053e-19
2222222222222
q=heatFlux [1 0 -2 0 0 0 0] 250
kappa=type            calculated;
value           uniform 0.25;

GAMG:  Solving for T, Initial residual = 0.99999976, Final residual = 1.7626311e-11, No Iterations 1
333333333333333333
4444444444444444444444
55555555555555555555555
incompressibleTwoPhaseMixturePCM::correct();
yyyyyyyyyyyyyyyyyyyyyyyyyyyyyyyyyyyyyyyyyyyyyyyyyyyyyyyyyyyyyyyyy
1

===========================================================+
2
3
4
5
6
7
cp1_ dims[0 2 -2 -1 0 0 0]
cp2_ dims[0 2 -2 -1 0 0 0]
DL dims[0 2 -2 -1 0 0 0]
9
interfaceProperties::correct();
666666666666666666666666
ExecutionTime = 0.06 s  ClockTime = 0 s

Region: air Courant Number mean: 4.6751533e-19 max: 3.4640841e-18
Region: pcm Courant Number mean: 1.821108e-09 max: 2.3961514e-08
Time = 1.5


Solving for fluid region air
diagonal:  Solving for rho, Initial residual = 0, Final residual = 0, No Iterations 0
DILUPBiCGStab:  Solving for Ux, Initial residual = 0.11057641, Final residual = 4.9385616e-08, No Iterations 3
DILUPBiCGStab:  Solving for Uy, Initial residual = 0.16974262, Final residual = 3.9020402e-08, No Iterations 3
DILUPBiCGStab:  Solving for h, Initial residual = 0.14886624, Final residual = 5.0310725e-08, No Iterations 7
GAMG:  Solving for G, Initial residual = 0.041450056, Final residual = 2.7146675e-07, No Iterations 1000
Min/max T:293.13964 293.15532
GAMG:  Solving for p_rgh, Initial residual = 0.94712746, Final residual = 7.5564265e-08, No Iterations 14
diagonal:  Solving for rho, Initial residual = 0, Final residual = 0, No Iterations 0
time step continuity errors : sum local = 4.8622205e-17, global = 4.3281639e-17, cumulative = 4.3281639e-17
Min/max rho:1.204 1.204

Solving for pcm region pcm
DILUPBiCGStab:  Solving for Ux, Initial residual = 0.94901302, Final residual = 0.036287686, No Iterations 3
DILUPBiCGStab:  Solving for Uy, Initial residual = 0.95033595, Final residual = 0.029176887, No Iterations 1
End of UEqn
111111111111
GAMG:  Solving for p_rgh, Initial residual = 0.99914731, Final residual = 0.0084101893, No Iterations 3
time step continuity errors : sum local = 0.0013100596, global = 6.8980349e-12, cumulative = 6.8980349e-12
2222222222222
q=heatFlux [1 0 -2 0 0 0 0] 250
kappa=type            calculated;
value           uniform 0.25;

GAMG:  Solving for T, Initial residual = 0.9998677, Final residual = 6.0531921e-08, No Iterations 1
333333333333333333
4444444444444444444444
55555555555555555555555
incompressibleTwoPhaseMixturePCM::correct();
yyyyyyyyyyyyyyyyyyyyyyyyyyyyyyyyyyyyyyyyyyyyyyyyyyyyyyyyyyyyyyyyy
1

===========================================================+
2
3
4
5
6
7
cp1_ dims[0 2 -2 -1 0 0 0]
cp2_ dims[0 2 -2 -1 0 0 0]
DL dims[0 2 -2 -1 0 0 0]
9
interfaceProperties::correct();
666666666666666666666666
ExecutionTime = 0.46 s  ClockTime = 1 s

Region: air Courant Number mean: 2.8624562e-19 max: 2.1173721e-18
Region: pcm Courant Number mean: 2.2248827e-05 max: 0.00068077514
Time = 2.25


Solving for fluid region air
diagonal:  Solving for rho, Initial residual = 0, Final residual = 0, No Iterations 0
DILUPBiCGStab:  Solving for Ux, Initial residual = 0.039532612, Final residual = 2.0054095e-08, No Iterations 3
DILUPBiCGStab:  Solving for Uy, Initial residual = 0.046051543, Final residual = 2.6806052e-08, No Iterations 3
DILUPBiCGStab:  Solving for h, Initial residual = 0.81525475, Final residual = 6.7292311e-08, No Iterations 8
GAMG:  Solving for G, Initial residual = 0.91110031, Final residual = 9.9704602e-08, No Iterations 88
Min/max T:289.84699 324.59311
GAMG:  Solving for p_rgh, Initial residual = 0.55289615, Final residual = 9.054081e-08, No Iterations 15
diagonal:  Solving for rho, Initial residual = 0, Final residual = 0, No Iterations 0
time step continuity errors : sum local = 4.8622205e-17, global = 4.3281639e-17, cumulative = 4.3281639e-17
Min/max rho:1.204 1.204

Solving for pcm region pcm
DILUPBiCGStab:  Solving for Ux, Initial residual = 0.44551525, Final residual = 0.026014598, No Iterations 2
DILUPBiCGStab:  Solving for Uy, Initial residual = 0.58837549, Final residual = 0.052787344, No Iterations 2
End of UEqn
111111111111
GAMG:  Solving for p_rgh, Initial residual = 0.98866026, Final residual = 0.0066599614, No Iterations 2
time step continuity errors : sum local = 0.0041584982, global = -3.0708573e-10, cumulative = -3.0708573e-10
2222222222222
q=heatFlux [1 0 -2 0 0 0 0] 250
kappa=type            calculated;
value           uniform 0.25;

GAMG:  Solving for T, Initial residual = 0.69249468, Final residual = 0.00035906168, No Iterations 1
333333333333333333
4444444444444444444444
55555555555555555555555
incompressibleTwoPhaseMixturePCM::correct();
yyyyyyyyyyyyyyyyyyyyyyyyyyyyyyyyyyyyyyyyyyyyyyyyyyyyyyyyyyyyyyyyy
1

===========================================================+
2
3
4
5
6
7
cp1_ dims[0 2 -2 -1 0 0 0]
cp2_ dims[0 2 -2 -1 0 0 0]
DL dims[0 2 -2 -1 0 0 0]
9
interfaceProperties::correct();
666666666666666666666666
ExecutionTime = 0.51 s  ClockTime = 1 s

Region: air Courant Number mean: 1.7513303e-19 max: 1.286514e-18
Region: pcm Courant Number mean: 0.0001832265 max: 0.011491663
Time = 3


Solving for fluid region air
diagonal:  Solving for rho, Initial residual = 0, Final residual = 0, No Iterations 0
DILUPBiCGStab:  Solving for Ux, Initial residual = 0.02337254, Final residual = 1.2695094e-08, No Iterations 3
DILUPBiCGStab:  Solving for Uy, Initial residual = 0.030134354, Final residual = 1.2083435e-08, No Iterations 3
DILUPBiCGStab:  Solving for h, Initial residual = 0.36202304, Final residual = 8.0625267e-08, No Iterations 8
GAMG:  Solving for G, Initial residual = 0.28361621, Final residual = 9.9240373e-08, No Iterations 73
Min/max T:268.91051 311.99471
GAMG:  Solving for p_rgh, Initial residual = 0.23534156, Final residual = 5.0014239e-08, No Iterations 15
diagonal:  Solving for rho, Initial residual = 0, Final residual = 0, No Iterations 0
time step continuity errors : sum local = 4.8622205e-17, global = 4.3281639e-17, cumulative = 4.3281639e-17
Min/max rho:1.204 1.204

Solving for pcm region pcm
DILUPBiCGStab:  Solving for Ux, Initial residual = 0.53059939, Final residual = 0.048762946, No Iterations 5
DILUPBiCGStab:  Solving for Uy, Initial residual = 0.40464287, Final residual = 0.029024022, No Iterations 2
End of UEqn
111111111111
GAMG:  Solving for p_rgh, Initial residual = 0.98753588, Final residual = 0.0095199735, No Iterations 2
time step continuity errors : sum local = 0.039883648, global = 3.7078138e-07, cumulative = 3.7078138e-07
2222222222222
q=heatFlux [1 0 -2 0 0 0 0] 250
kappa=type            calculated;
value           uniform 0.25;

GAMG:  Solving for T, Initial residual = 0.87043295, Final residual = 0.0019253865, No Iterations 2
333333333333333333
4444444444444444444444
55555555555555555555555
incompressibleTwoPhaseMixturePCM::correct();
yyyyyyyyyyyyyyyyyyyyyyyyyyyyyyyyyyyyyyyyyyyyyyyyyyyyyyyyyyyyyyyyy
1

===========================================================+
2
3
4
5
6
7
cp1_ dims[0 2 -2 -1 0 0 0]
cp2_ dims[0 2 -2 -1 0 0 0]
DL dims[0 2 -2 -1 0 0 0]
9
interfaceProperties::correct();
666666666666666666666666
ExecutionTime = 0.56 s  ClockTime = 1 s

Region: air Courant Number mean: 1.081382e-19 max: 7.8197141e-19
Region: pcm Courant Number mean: 0.006277905 max: 0.40413549
Time = 3.75


Solving for fluid region air
diagonal:  Solving for rho, Initial residual = 0, Final residual = 0, No Iterations 0
DILUPBiCGStab:  Solving for Ux, Initial residual = 0.014269461, Final residual = 6.8073181e-08, No Iterations 2
DILUPBiCGStab:  Solving for Uy, Initial residual = 0.019124836, Final residual = 9.8727152e-08, No Iterations 2
DILUPBiCGStab:  Solving for h, Initial residual = 0.95090684, Final residual = 7.8590445e-08, No Iterations 8
GAMG:  Solving for G, Initial residual = 0.99311877, Final residual = 9.0725281e-08, No Iterations 87
Min/max T:213.54998 924.28418
GAMG:  Solving for p_rgh, Initial residual = 0.12336598, Final residual = 8.7480113e-08, No Iterations 13
diagonal:  Solving for rho, Initial residual = 0, Final residual = 0, No Iterations 0
time step continuity errors : sum local = 4.8622205e-17, global = 4.3281639e-17, cumulative = 4.3281639e-17
Min/max rho:1.204 1.204

Solving for pcm region pcm
DILUPBiCGStab:  Solving for Ux, Initial residual = 0.83312821, Final residual = 0.053330137, No Iterations 1
DILUPBiCGStab:  Solving for Uy, Initial residual = 0.99032397, Final residual = 0.044203014, No Iterations 1
End of UEqn
111111111111
GAMG:  Solving for p_rgh, Initial residual = 0.9847, Final residual = 0.0047324236, No Iterations 3
time step continuity errors : sum local = 0.24857262, global = 1.8942545e-07, cumulative = 1.8942545e-07
2222222222222
q=heatFlux [1 0 -2 0 0 0 0] 250
kappa=type            calculated;
value           uniform 0.25;

GAMG:  Solving for T, Initial residual = 0.70891205, Final residual = 0.0063784264, No Iterations 2
333333333333333333
4444444444444444444444
55555555555555555555555
incompressibleTwoPhaseMixturePCM::correct();
yyyyyyyyyyyyyyyyyyyyyyyyyyyyyyyyyyyyyyyyyyyyyyyyyyyyyyyyyyyyyyyyy
1

===========================================================+
2
3
4
5
6
7
cp1_ dims[0 2 -2 -1 0 0 0]
cp2_ dims[0 2 -2 -1 0 0 0]
DL dims[0 2 -2 -1 0 0 0]
9
interfaceProperties::correct();
666666666666666666666666
ExecutionTime = 0.61 s  ClockTime = 1 s

Region: air Courant Number mean: 6.7742412e-20 max: 5.5318532e-19
Region: pcm Courant Number mean: 0.19058994 max: 8.8579361
Time = 4.5


Solving for fluid region air
diagonal:  Solving for rho, Initial residual = 0, Final residual = 0, No Iterations 0
DILUPBiCGStab:  Solving for Ux, Initial residual = 0.0086408588, Final residual = 4.1901793e-08, No Iterations 2
DILUPBiCGStab:  Solving for Uy, Initial residual = 0.01245836, Final residual = 6.9955331e-08, No Iterations 2
DILUPBiCGStab:  Solving for h, Initial residual = 0.66553905, Final residual = 5.1999951e-08, No Iterations 8
GAMG:  Solving for G, Initial residual = 0.59034591, Final residual = 8.8751272e-08, No Iterations 86
Min/max T:85.430314 1058.4461
GAMG:  Solving for p_rgh, Initial residual = 0.08283991, Final residual = 8.6395233e-08, No Iterations 12
diagonal:  Solving for rho, Initial residual = 0, Final residual = 0, No Iterations 0
time step continuity errors : sum local = 4.8622205e-17, global = 4.3281639e-17, cumulative = 4.3281639e-17
Min/max rho:1.204 1.204

Solving for pcm region pcm
DILUPBiCGStab:  Solving for Ux, Initial residual = 0.8284925, Final residual = 0.04100368, No Iterations 1
DILUPBiCGStab:  Solving for Uy, Initial residual = 0.99371501, Final residual = 0.034208616, No Iterations 1
End of UEqn
111111111111
GAMG:  Solving for p_rgh, Initial residual = 0.97385396, Final residual = 0.0053302728, No Iterations 3
time step continuity errors : sum local = 17.706278, global = 5.6876679e-06, cumulative = 5.6876679e-06
2222222222222
q=heatFlux [1 0 -2 0 0 0 0] 250
kappa=type            calculated;
value           uniform 0.25;

GAMG:  Solving for T, Initial residual = 0.71465259, Final residual = 0.0069920765, No Iterations 3
333333333333333333
4444444444444444444444
55555555555555555555555
incompressibleTwoPhaseMixturePCM::correct();
yyyyyyyyyyyyyyyyyyyyyyyyyyyyyyyyyyyyyyyyyyyyyyyyyyyyyyyyyyyyyyyyy
1

===========================================================+
2
3
4
5
6
7
cp1_ dims[0 2 -2 -1 0 0 0]
cp2_ dims[0 2 -2 -1 0 0 0]
DL dims[0 2 -2 -1 0 0 0]
9
interfaceProperties::correct();
666666666666666666666666
ExecutionTime = 0.66 s  ClockTime = 1 s

Region: air Courant Number mean: 4.3021716e-20 max: 4.2868762e-19
Region: pcm Courant Number mean: 5.7451497 max: 282.03033
Time = 5.25


Solving for fluid region air
diagonal:  Solving for rho, Initial residual = 0, Final residual = 0, No Iterations 0
DILUPBiCGStab:  Solving for Ux, Initial residual = 0.0052805943, Final residual = 2.5709246e-08, No Iterations 2
DILUPBiCGStab:  Solving for Uy, Initial residual = 0.0080385319, Final residual = 4.4522448e-08, No Iterations 2
DILUPBiCGStab:  Solving for h, Initial residual = 0.94252045, Final residual = 4.3396599e-08, No Iterations 8
GAMG:  Solving for G, Initial residual = 0.99999494, Final residual = 9.4330173e-08, No Iterations 87
Min/max T:46.114381 26563.518
GAMG:  Solving for p_rgh, Initial residual = 0.053702395, Final residual = 5.5689796e-08, No Iterations 10
diagonal:  Solving for rho, Initial residual = 0, Final residual = 0, No Iterations 0
time step continuity errors : sum local = 4.8622205e-17, global = 4.3281639e-17, cumulative = 4.3281639e-17
Min/max rho:1.204 1.204

Solving for pcm region pcm
DILUPBiCGStab:  Solving for Ux, Initial residual = 0.80062086, Final residual = 0.03651467, No Iterations 1
DILUPBiCGStab:  Solving for Uy, Initial residual = 0.99366146, Final residual = 0.035990252, No Iterations 1
End of UEqn
111111111111
GAMG:  Solving for p_rgh, Initial residual = 0.97165371, Final residual = 0.0064821364, No Iterations 4
time step continuity errors : sum local = 1965.9147, global = 0.00014871066, cumulative = 0.00014871066
2222222222222
q=heatFlux [1 0 -2 0 0 0 0] 250
kappa=type            calculated;
value           uniform 0.25;

[0] #0  Foam::error::printStack(Foam::Ostream&) at ??:?
[0] #1  Foam::sigFpe::sigHandler(int) at ??:?
[0] #2  ? in "/lib/x86_64-linux-gnu/libc.so.6"
[0] #3  double Foam::sumProd<double>(Foam::UList<double> const&, Foam::UList<double> const&) at ??:?
[0] #4  Foam::PBiCGStab::solve(Foam::Field<double>&, Foam::Field<double> const&, unsigned char) const at ??:?
[0] #5  Foam::GAMGSolver::solveCoarsestLevel(Foam::Field<double>&, Foam::Field<double> const&) const at ??:?
[0] #6  Foam::GAMGSolver::Vcycle(Foam::PtrList<Foam::lduMatrix::smoother> const&, Foam::Field<double>&, Foam::Field<double> const&, Foam::Field<double>&, Foam::Field<double>&, Foam::Field<double>&, Foam::Field<double>&, Foam::Field<double>&, Foam::PtrList<Foam::Field<double> >&, Foam::PtrList<Foam::Field<double> >&, unsigned char) const at ??:?
[0] #7  Foam::GAMGSolver::solve(Foam::Field<double>&, Foam::Field<double> const&, unsigned char) const at ??:?
[0] #8  Foam::fvMatrix<double>::solveSegregated(Foam::dictionary const&) at ??:?
[0] #9  Foam::fvMatrix<double>::solve(Foam::dictionary const&) in "/home/ehsan/OpenFOAM/ehsan-7/platforms/linux64GccDPInt32Opt/bin/pcmFoam"
[0] #10  Foam::fvMatrix<double>::solve() in "/home/ehsan/OpenFOAM/ehsan-7/platforms/linux64GccDPInt32Opt/bin/pcmFoam"
[0] #11  ? in "/home/ehsan/OpenFOAM/ehsan-7/platforms/linux64GccDPInt32Opt/bin/pcmFoam"
[0] #12  __libc_start_main in "/lib/x86_64-linux-gnu/libc.so.6"
[0] #13  ? in "/home/ehsan/OpenFOAM/ehsan-7/platforms/linux64GccDPInt32Opt/bin/pcmFoam"
[Mahravan:20902] *** Process received signal ***
[Mahravan:20902] Signal: Floating point exception (8)
[Mahravan:20902] Signal code:  (-6)
[Mahravan:20902] Failing at address: 0x3e8000051a6
[Mahravan:20902] [ 0] /lib/x86_64-linux-gnu/libc.so.6(+0x3efd0)[0x7f89452effd0]
[Mahravan:20902] [ 1] /lib/x86_64-linux-gnu/libc.so.6(gsignal+0xc7)[0x7f89452eff47]
[Mahravan:20902] [ 2] /lib/x86_64-linux-gnu/libc.so.6(+0x3efd0)[0x7f89452effd0]
[Mahravan:20902] [ 3] /opt/openfoam7/platforms/linux64GccDPInt32Opt/lib/libOpenFOAM.so(_ZN4Foam7sumProdIdEEdRKNS_5UListIT_EES5_+0x2d)[0x7f89468d6c4d]
[Mahravan:20902] [ 4] /opt/openfoam7/platforms/linux64GccDPInt32Opt/lib/libOpenFOAM.so(_ZNK4Foam9PBiCGStab5solveERNS_5FieldIdEERKS2_h+0x98a)[0x7f89466dc16a]
[Mahravan:20902] [ 5] /opt/openfoam7/platforms/linux64GccDPInt32Opt/lib/libOpenFOAM.so(_ZNK4Foam10GAMGSolver18solveCoarsestLevelERNS_5FieldIdEERKS2_+0x2a0)[0x7f89466fc7d0]
[Mahravan:20902] [ 6] /opt/openfoam7/platforms/linux64GccDPInt32Opt/lib/libOpenFOAM.so(_ZNK4Foam10GAMGSolver6VcycleERKNS_7PtrListINS_9lduMatrix8smootherEEERNS_5FieldIdEERKS8_S9_S9_S9_S9_S9_RNS1_IS8_EESD_h+0x577)[0x7f89466fdb47]
[Mahravan:20902] [ 7] /opt/openfoam7/platforms/linux64GccDPInt32Opt/lib/libOpenFOAM.so(_ZNK4Foam10GAMGSolver5solveERNS_5FieldIdEERKS2_h+0x4af)[0x7f894670032f]
[Mahravan:20902] [ 8] /opt/openfoam7/platforms/linux64GccDPInt32Opt/lib/libfiniteVolume.so(_ZN4Foam8fvMatrixIdE15solveSegregatedERKNS_10dictionaryE+0x17d)[0x7f8949017ced]
[Mahravan:20902] [ 9] pcmFoam(_ZN4Foam8fvMatrixIdE5solveERKNS_10dictionaryE+0x15b)[0x556490100fab]
[Mahravan:20902] [10] pcmFoam(_ZN4Foam8fvMatrixIdE5solveEv+0xf2)[0x5564901014e2]
[Mahravan:20902] [11] pcmFoam(+0x41c5e)[0x55649009ac5e]
[Mahravan:20902] [12] /lib/x86_64-linux-gnu/libc.so.6(__libc_start_main+0xe7)[0x7f89452d2b97]
[Mahravan:20902] [13] pcmFoam(+0x4903a)[0x5564900a203a]
[Mahravan:20902] *** End of error message ***
--------------------------------------------------------------------------
mpirun noticed that process rank 0 with PID 0 on node Mahravan exited on signal 8 (Floating point exception).
--------------------------------------------------------------------------
