/*---------------------------------------------------------------------------*\
  =========                 |
  \\      /  F ield         | OpenFOAM: The Open Source CFD Toolbox
   \\    /   O peration     | Website:  https://openfoam.org
    \\  /    A nd           | Version:  7
     \\/     M anipulation  |
\*---------------------------------------------------------------------------*/
Build  : 7-1ff648926f77
Exec   : blockMesh -case .
Date   : Dec 11 2020
Time   : 17:40:05
Host   : "Mahravan"
PID    : 20845
I/O    : uncollated
Case   : /home/ehsan/OpenFOAM/ehsan-7/pcm/validation
nProcs : 1
sigFpe : Enabling floating point exception trapping (FOAM_SIGFPE).
fileModificationChecking : Monitoring run-time modified files using timeStampMaster (fileModificationSkew 10)
allowSystemOperations : Allowing user-supplied system call operations

// * * * * * * * * * * * * * * * * * * * * * * * * * * * * * * * * * * * * * //
Create time

Deleting polyMesh directory
    "/home/ehsan/OpenFOAM/ehsan-7/pcm/validation/constant/polyMesh"
Creating block mesh from
    "/home/ehsan/OpenFOAM/ehsan-7/pcm/validation/system/blockMeshDict"
Creating block edges
No non-planar block faces defined
Creating topology blocks
Creating topology patches

Creating block mesh topology

Check topology

	Basic statistics
		Number of internal faces : 1
		Number of boundary faces : 10
		Number of defined boundary faces : 10
		Number of undefined boundary faces : 0
	Checking patch -> block consistency

Creating block offsets
Creating merge list .

Creating polyMesh from blockMesh
Creating patches
Creating cells
Creating points with scale 1
    Block 0 cell size :
        i : 0.0125 .. 0.0125
        j : 0.0083333333 .. 0.0083333333
        k : 0.1
    Block 1 cell size :
        i : 0.004 .. 0.004
        j : 0.0083333333 .. 0.0083333333
        k : 0.1

Adding cell zones
    0	air
    1	pcm

Writing polyMesh
----------------
Mesh Information
----------------
  boundingBox: (-1 0 -0.05) (0.2 1 0.05)
  nPoints: 31702
  nCells: 15600
  nFaces: 62650
  nInternalFaces: 30950
----------------
Patches
----------------
  patch 0 (start: 30950 size: 120) name: airLeft
  patch 1 (start: 31070 size: 80) name: airBottom
  patch 2 (start: 31150 size: 80) name: airTop
  patch 3 (start: 31230 size: 120) name: pcmRight
  patch 4 (start: 31350 size: 50) name: pcmTop
  patch 5 (start: 31400 size: 50) name: pcmBottom
  patch 6 (start: 31450 size: 31200) name: frontAndBack

End

