/*---------------------------------------------------------------------------*\
  =========                 |
  \\      /  F ield         | OpenFOAM: The Open Source CFD Toolbox
   \\    /   O peration     | Website:  https://openfoam.org
    \\  /    A nd           | Version:  7
     \\/     M anipulation  |
\*---------------------------------------------------------------------------*/
Build  : 7-1ff648926f77
Exec   : splitMeshRegions -cellZonesOnly -overwrite -case .
Date   : Dec 11 2020
Time   : 17:40:06
Host   : "Mahravan"
PID    : 20848
I/O    : uncollated
Case   : /home/ehsan/OpenFOAM/ehsan-7/pcm/validation
nProcs : 1
sigFpe : Enabling floating point exception trapping (FOAM_SIGFPE).
fileModificationChecking : Monitoring run-time modified files using timeStampMaster (fileModificationSkew 10)
allowSystemOperations : Allowing user-supplied system call operations

// * * * * * * * * * * * * * * * * * * * * * * * * * * * * * * * * * * * * * //
Create time

Create mesh for time = 0

Creating single patch per inter-region interface.

Using current cellZones to split mesh into regions. This requires all cells to be in one and only one cellZone.


Number of regions:2

Writing region per cell file (for manual decomposition) to "/home/ehsan/OpenFOAM/ehsan-7/pcm/validation/constant/cellToRegion"

Writing region per cell as volScalarField to "/home/ehsan/OpenFOAM/ehsan-7/pcm/validation/0/cellToRegion"

Region	Cells
------	-----
0	9600
1	6000

Region	Zone	Name
------	----	----
0	0	air
1	1	pcm

Sizes of interfaces between regions:

Interface	Region	Region	Faces
---------	------	------	-----
0		0	1	120

Reading geometric fields

Reading volScalarField cellToRegion


Adding patches


Adding patches

For interface between region air and pcm added patches
    7	air_to_pcm
    8	pcm_to_air

Region 0
-------- 
Creating mesh for region 0 air
Testing:"/home/ehsan/OpenFOAM/ehsan-7/pcm/validation/system/air/fvSchemes"
Mapping fields
Mapping field cellToRegion
Deleting empty patches
Writing new mesh
Writing addressing to base mesh
Writing map pointRegionAddressing from region0 points back to base mesh.
Writing map faceRegionAddressing from region0 faces back to base mesh.
Writing map cellRegionAddressing from region0 cells back to base mesh.
Writing map boundaryRegionAddressing from region0 boundary back to base mesh.

Region 1
-------- 
Creating mesh for region 1 pcm
Testing:"/home/ehsan/OpenFOAM/ehsan-7/pcm/validation/system/pcm/fvSchemes"
Mapping fields
Mapping field cellToRegion
Deleting empty patches
Writing new mesh
Writing addressing to base mesh
Writing map pointRegionAddressing from region1 points back to base mesh.
Writing map faceRegionAddressing from region1 faces back to base mesh.
Writing map cellRegionAddressing from region1 cells back to base mesh.
Writing map boundaryRegionAddressing from region1 boundary back to base mesh.
End

